final
OpenBabel08032314583D

 46 49  0  0  1  0  0  0  0  0999 V2000
   -6.4267    1.3417   -0.2341 C   0  0  0  0  0  0  0  0  0  0  0  0
   -5.8042    0.4704   -1.1110 C   0  0  0  0  0  0  0  0  0  0  0  0
   -4.5449   -0.0454   -0.8492 C   0  0  0  0  0  0  0  0  0  0  0  0
   -3.8902    0.3166    0.3236 C   0  0  0  0  0  0  0  0  0  0  0  0
   -4.5137    1.1929    1.2082 C   0  0  0  0  0  0  0  0  0  0  0  0
   -5.7690    1.7001    0.9306 C   0  0  0  0  0  0  0  0  0  0  0  0
   -2.6032   -0.1319    0.6753 N   0  0  0  0  0  0  0  0  0  0  0  0
   -1.8539   -1.1168    0.0885 C   0  0  0  0  0  0  0  0  0  0  0  0
   -2.2003   -1.7581   -0.8667 O   0  0  0  0  0  0  0  0  0  0  0  0
   -0.6567   -1.3219    0.7208 N   0  0  0  0  0  0  0  0  0  0  0  0
    0.3320   -2.2065    0.1354 C   0  0  2  0  0  0  0  0  0  0  0  0
   -0.1777   -3.0734   -0.2555 H   0  0  0  0  0  0  0  0  0  0  0  0
    1.2959   -2.5915    1.2587 C   0  0  1  0  0  0  0  0  0  0  0  0
    0.7562   -3.0223    2.0883 H   0  0  0  0  0  0  0  0  0  0  0  0
    2.5156   -3.4128    0.8319 C   0  0  0  0  0  0  0  0  0  0  0  0
    3.4523   -2.4202    0.4555 O   0  0  0  0  0  0  0  0  0  0  0  0
    2.8899   -1.1768    0.7264 C   0  0  2  0  0  0  0  0  0  0  0  0
    3.6353   -0.5088    1.1281 H   0  0  0  0  0  0  0  0  0  0  0  0
    1.9192   -1.3987    1.6975 O   0  0  0  0  0  0  0  0  0  0  0  0
    2.2281   -0.6208   -0.5406 C   0  0  1  0  0  0  0  0  0  0  0  0
    2.9638   -0.5334   -1.3310 H   0  0  0  0  0  0  0  0  0  0  0  0
    1.0903   -1.5440   -1.0323 C   0  0  1  0  0  0  0  0  0  0  0  0
    0.3932   -0.9408   -1.5994 H   0  0  0  0  0  0  0  0  0  0  0  0
    1.5929   -2.5860   -1.8258 O   0  0  0  0  0  0  0  0  0  0  0  0
    1.6446    0.6304   -0.2637 O   0  0  0  0  0  0  0  0  0  0  0  0
    2.3397    1.7905   -0.3638 C   0  0  0  0  0  0  0  0  0  0  0  0
    3.7080    1.8804   -0.5631 C   0  0  0  0  0  0  0  0  0  0  0  0
    4.3050    3.1334   -0.6502 C   0  0  0  0  0  0  0  0  0  0  0  0
    3.5583    4.2882   -0.5370 C   0  0  0  0  0  0  0  0  0  0  0  0
    2.1870    4.1862   -0.3341 C   0  0  0  0  0  0  0  0  0  0  0  0
    1.5799    2.9513   -0.2491 C   0  0  0  0  0  0  0  0  0  0  0  0
   -7.4038    1.7328   -0.4525 H   0  0  0  0  0  0  0  0  0  0  0  0
   -6.3007    0.1807   -2.0202 H   0  0  0  0  0  0  0  0  0  0  0  0
   -4.0821   -0.7220   -1.5346 H   0  0  0  0  0  0  0  0  0  0  0  0
   -4.0142    1.4787    2.1187 H   0  0  0  0  0  0  0  0  0  0  0  0
   -6.2309    2.3750    1.6292 H   0  0  0  0  0  0  0  0  0  0  0  0
   -2.2634    0.2198    1.5411 H   0  0  0  0  0  0  0  0  0  0  0  0
   -0.2728   -0.5652    1.2440 H   0  0  0  0  0  0  0  0  0  0  0  0
    2.9142   -3.9693    1.6708 H   0  0  0  0  0  0  0  0  0  0  0  0
    2.3324   -4.0757    0.0024 H   0  0  0  0  0  0  0  0  0  0  0  0
    1.9185   -2.2436   -2.6467 H   0  0  0  0  0  0  0  0  0  0  0  0
    4.3208    1.0041   -0.6479 H   0  0  0  0  0  0  0  0  0  0  0  0
    5.3676    3.1920   -0.8048 H   0  0  0  0  0  0  0  0  0  0  0  0
    4.0294    5.2517   -0.6042 H   0  0  0  0  0  0  0  0  0  0  0  0
    1.5883    5.0752   -0.2460 H   0  0  0  0  0  0  0  0  0  0  0  0
    0.5199    2.8593   -0.1010 H   0  0  0  0  0  0  0  0  0  0  0  0
  1  2  5  0  0  0  0
  1  6  5  0  0  0  0
  1 32  1  0  0  0  0
  2  3  5  0  0  0  0
  2 33  1  0  0  0  0
  3  4  5  0  0  0  0
  3 34  1  0  0  0  0
  4  5  5  0  0  0  0
  5  6  5  0  0  0  0
  5 35  1  0  0  0  0
  6 36  1  0  0  0  0
  7  4  1  0  0  0  0
  7  8  1  0  0  0  0
  7 37  1  0  0  0  0
  9  8  2  0  0  0  0
 10  8  1  0  0  0  0
 10 11  1  0  0  0  0
 10 38  1  0  0  0  0
 11 12  1  6  0  0  0
 11 13  1  0  0  0  0
 11 22  1  0  0  0  0
 13 14  1  1  0  0  0
 13 15  1  0  0  0  0
 15 39  1  0  0  0  0
 15 40  1  0  0  0  0
 16 15  1  0  0  0  0
 16 17  1  0  0  0  0
 17 18  1  1  0  0  0
 17 20  1  0  0  0  0
 19 13  1  0  0  0  0
 19 17  1  0  0  0  0
 20 21  1  6  0  0  0
 20 22  1  0  0  0  0
 22 23  1  6  0  0  0
 24 22  1  0  0  0  0
 24 41  1  0  0  0  0
 25 20  1  0  0  0  0
 25 26  1  0  0  0  0
 26 27  5  0  0  0  0
 26 31  5  0  0  0  0
 27 28  5  0  0  0  0
 27 42  1  0  0  0  0
 28 29  5  0  0  0  0
 28 43  1  0  0  0  0
 29 30  5  0  0  0  0
 29 44  1  0  0  0  0
 30 31  5  0  0  0  0
 30 45  1  0  0  0  0
 31 46  1  0  0  0  0
M  END
