final
 OpenBabel08102315123D

 71 74  0  0  1  0  0  0  0  0999 V2000
   -5.8288    0.8110    1.3983 C   0  0  0  0  0  0  0  0  0  0  0  0
   -6.3281    0.2553    0.0948 C   0  0  0  0  0  0  0  0  0  0  0  0
   -5.5749   -0.0559   -0.9936 C   0  0  0  0  0  0  0  0  0  0  0  0
   -6.2625   -0.5484   -2.1350 C   0  0  0  0  0  0  0  0  0  0  0  0
   -7.6116   -0.7142   -2.1745 C   0  0  0  0  0  0  0  0  0  0  0  0
   -8.3611   -0.3782   -1.0328 C   0  0  2  0  0  0  0  0  0  0  0  0
   -7.6880    0.0806    0.0323 N   0  0  0  0  0  0  0  0  0  0  0  0
   -8.2111    0.3262    0.8491 H   0  0  0  0  0  0  0  0  0  0  0  0
   -9.6810   -0.4972   -0.9673 N   0  0  0  0  0  0  0  0  0  0  0  0
   -4.0707    0.1354   -1.0404 C   0  0  0  0  0  0  0  0  0  0  0  0
   -3.3655   -0.8855   -0.2805 N   0  0  0  0  0  0  0  0  0  0  0  0
   -2.0655   -0.6890    0.0718 C   0  0  0  0  0  0  0  0  0  0  0  0
   -1.5055    0.3601   -0.0557 O   0  0  0  0  0  0  0  0  0  0  0  0
   -1.3701   -1.9125    0.6906 C   0  0  2  0  0  0  0  0  0  0  0  0
   -1.5924   -2.7868    0.0905 H   0  0  0  0  0  0  0  0  0  0  0  0
   -1.8282   -2.1496    2.1136 C   0  0  0  0  0  0  0  0  0  0  0  0
   -1.0375   -2.0053    3.1580 C   0  0  0  0  0  0  0  0  0  0  0  0
    0.3925   -1.5539    3.0661 C   0  0  0  0  0  0  0  0  0  0  0  0
    0.6193   -1.0230    1.7331 N   0  0  0  0  0  0  0  0  0  0  0  0
    0.0638   -1.7636    0.6816 N   0  0  0  0  0  0  0  0  0  0  0  0
    0.7530   -1.4672   -0.4589 C   0  0  0  0  0  0  0  0  0  0  0  0
    0.4828   -1.7762   -1.5729 O   0  0  0  0  0  0  0  0  0  0  0  0
    1.8486   -0.7143   -0.0500 N   0  0  0  0  0  0  0  0  0  0  0  0
    1.7934   -0.5086    1.3131 C   0  0  0  0  0  0  0  0  0  0  0  0
    2.6131    0.0772    1.9716 O   0  0  0  0  0  0  0  0  0  0  0  0
    3.0137   -0.6232   -0.9063 C   0  0  1  0  0  0  0  0  0  0  0  0
    2.6462   -0.4283   -1.9053 H   0  0  0  0  0  0  0  0  0  0  0  0
    4.0288    0.4615   -0.5112 C   0  0  0  0  0  0  0  0  0  0  0  0
    3.3776    1.7570   -0.1664 N   0  0  0  0  0  4  0  0  0  0  0  0
    2.6025    1.9297   -0.7894 H   0  0  0  0  0  0  0  0  0  0  0  0
    2.9821    1.6382    0.7605 H   0  0  0  0  0  0  0  0  0  0  0  0
    4.2729    2.9849   -0.1745 C   0  0  0  0  0  0  0  0  0  0  0  0
    3.3929    4.2138    0.0539 C   0  0  0  0  0  0  0  0  0  0  0  0
    4.2465    5.4876    0.0939 C   0  0  0  0  0  0  0  0  0  0  0  0
    5.3519    5.3830    1.1466 C   0  0  0  0  0  0  0  0  0  0  0  0
    6.2158    4.1414    0.9188 C   0  0  0  0  0  0  0  0  0  0  0  0
    5.3734    2.8582    0.8783 C   0  0  0  0  0  0  0  0  0  0  0  0
    3.7343   -1.9768   -0.9383 C   0  0  0  0  0  0  0  0  0  0  0  0
    3.4170   -2.8888   -0.2555 O   0  0  0  0  0  0  0  0  0  0  0  0
    4.7209   -1.9496   -1.7956 O   0  0  0  0  0  0  0  0  0  0  0  0
    5.4842   -3.1539   -1.9706 C   0  0  0  0  0  0  0  0  0  0  0  0
   -6.1341    1.8477    1.5029 H   0  0  0  0  0  0  0  0  0  0  0  0
   -6.2380    0.2503    2.2322 H   0  0  0  0  0  0  0  0  0  0  0  0
   -4.7542    0.7601    1.4578 H   0  0  0  0  0  0  0  0  0  0  0  0
   -5.6922   -0.7970   -3.0119 H   0  0  0  0  0  0  0  0  0  0  0  0
   -8.1133   -1.0845   -3.0469 H   0  0  0  0  0  0  0  0  0  0  0  0
  -10.1948   -0.8289   -1.7542 H   0  0  0  0  0  0  0  0  0  0  0  0
  -10.2119   -0.2450   -0.1625 H   0  0  0  0  0  0  0  0  0  0  0  0
   -3.7502    0.1307   -2.0764 H   0  0  0  0  0  0  0  0  0  0  0  0
   -3.7886    1.0952   -0.6381 H   0  0  0  0  0  0  0  0  0  0  0  0
   -3.6727   -1.8270   -0.3960 H   0  0  0  0  0  0  0  0  0  0  0  0
   -2.8436   -2.4772    2.2396 H   0  0  0  0  0  0  0  0  0  0  0  0
   -1.3998   -2.2337    4.1439 H   0  0  0  0  0  0  0  0  0  0  0  0
    0.5948   -0.7615    3.7719 H   0  0  0  0  0  0  0  0  0  0  0  0
    1.0642   -2.3810    3.2764 H   0  0  0  0  0  0  0  0  0  0  0  0
    4.6019    0.1645    0.3494 H   0  0  0  0  0  0  0  0  0  0  0  0
    4.6931    0.6243   -1.3451 H   0  0  0  0  0  0  0  0  0  0  0  0
    4.7027    3.0155   -1.1686 H   0  0  0  0  0  0  0  0  0  0  0  0
    2.6434    4.2904   -0.7304 H   0  0  0  0  0  0  0  0  0  0  0  0
    2.8641    4.1036    0.9987 H   0  0  0  0  0  0  0  0  0  0  0  0
    4.6856    5.6576   -0.8861 H   0  0  0  0  0  0  0  0  0  0  0  0
    3.6034    6.3357    0.2976 H   0  0  0  0  0  0  0  0  0  0  0  0
    5.9712    6.2722    1.1197 H   0  0  0  0  0  0  0  0  0  0  0  0
    4.9077    5.3415    2.1385 H   0  0  0  0  0  0  0  0  0  0  0  0
    6.7622    4.2414   -0.0160 H   0  0  0  0  0  0  0  0  0  0  0  0
    6.9582    4.0451    1.7021 H   0  0  0  0  0  0  0  0  0  0  0  0
    4.9190    2.6866    1.8518 H   0  0  0  0  0  0  0  0  0  0  0  0
    6.0156    2.0105    0.6671 H   0  0  0  0  0  0  0  0  0  0  0  0
    6.2262   -2.9168   -2.7135 H   0  0  0  0  0  0  0  0  0  0  0  0
    5.9479   -3.4311   -1.0370 H   0  0  0  0  0  0  0  0  0  0  0  0
    4.8367   -3.9453   -2.3133 H   0  0  0  0  0  0  0  0  0  0  0  0
  1 42  1  0  0  0  0
  1 43  1  0  0  0  0
  1 44  1  0  0  0  0
  2  1  1  0  0  0  0
  2  3  2  0  0  0  0
  3  4  5  0  0  0  0
  3 10  1  0  0  0  0
  4  5  5  0  0  0  0
  4 45  1  0  0  0  0
  5  6  5  0  0  0  0
  5 46  1  0  0  0  0
  6  9  5  1  0  0  0
  7  2  1  0  0  0  0
  7  6  1  0  0  0  0
  7  8  1  0  0  0  0
  9 47  1  0  0  0  0
  9 48  1  0  0  0  0
 10 49  1  0  0  0  0
 10 50  1  0  0  0  0
 11 10  1  0  0  0  0
 11 12  1  0  0  0  0
 11 51  1  0  0  0  0
 12 14  1  0  0  0  0
 13 12  2  0  0  0  0
 14 15  1  6  0  0  0
 16 14  1  0  0  0  0
 16 17  2  0  0  0  0
 16 52  1  0  0  0  0
 17 18  1  0  0  0  0
 17 53  1  0  0  0  0
 18 54  1  0  0  0  0
 18 55  1  0  0  0  0
 19 18  1  0  0  0  0
 19 20  1  0  0  0  0
 19 24  1  0  0  0  0
 20 14  1  0  0  0  0
 20 21  1  0  0  0  0
 22 21  2  0  0  0  0
 23 21  1  0  0  0  0
 23 24  1  0  0  0  0
 23 26  1  0  0  0  0
 25 24  2  0  0  0  0
 26 27  1  6  0  0  0
 26 28  1  0  0  0  0
 28 56  1  0  0  0  0
 28 57  1  0  0  0  0
 29 28  1  0  0  0  0
 29 30  1  0  0  0  0
 29 31  1  0  0  0  0
 29 32  1  0  0  0  0
 32 33  1  0  0  0  0
 32 37  1  0  0  0  0
 32 58  1  0  0  0  0
 33 34  1  0  0  0  0
 33 59  1  0  0  0  0
 33 60  1  0  0  0  0
 34 35  1  0  0  0  0
 34 61  1  0  0  0  0
 34 62  1  0  0  0  0
 35 36  1  0  0  0  0
 35 63  1  0  0  0  0
 35 64  1  0  0  0  0
 36 37  1  0  0  0  0
 36 65  1  0  0  0  0
 36 66  1  0  0  0  0
 37 67  1  0  0  0  0
 37 68  1  0  0  0  0
 38 26  1  0  0  0  0
 39 38  2  0  0  0  0
 40 38  1  0  0  0  0
 40 41  1  0  0  0  0
 41 69  1  0  0  0  0
 41 70  1  0  0  0  0
 41 71  1  0  0  0  0
M  END
