final
 OpenBabel08102315123D

 61 65  0  0  1  0  0  0  0  0999 V2000
   -6.2999    1.7191    2.3090 C   0  0  0  0  0  0  0  0  0  0  0  0
   -5.8819    0.9101    1.1017 C   0  0  1  0  0  0  0  0  0  0  0  0
   -4.5301    0.7402    0.8709 C   0  0  0  0  0  0  0  0  0  0  0  0
   -4.0391    0.0113   -0.2102 C   0  0  2  0  0  0  0  0  0  0  0  0
   -4.9217   -0.5827   -1.1014 C   0  0  0  0  0  0  0  0  0  0  0  0
   -6.2770   -0.4355   -0.8848 C   0  0  0  0  0  0  0  0  0  0  0  0
   -6.7545    0.2947    0.1883 C   0  0  2  0  0  0  0  0  0  0  0  0
   -8.1994    0.3904    0.3115 N   0  0  0  0  0  0  0  0  0  0  0  0
   -8.8660   -0.3375   -0.3648 O   0  0  0  0  0  0  0  0  0  0  0  0
   -8.6544    1.1903    1.0736 O   0  0  0  0  0  0  0  0  0  0  0  0
   -2.7056   -0.0644   -0.2984 O   0  0  0  0  0  0  0  0  0  0  0  0
   -2.1066   -0.7553   -1.3673 C   0  0  0  0  0  0  0  0  0  0  0  0
   -0.6051   -0.6772   -1.2311 C   0  0  2  0  0  0  0  0  0  0  0  0
    0.0266    0.0469   -0.2419 C   0  0  0  0  0  0  0  0  0  0  0  0
    1.4178    0.1171   -0.1382 C   0  0  1  0  0  0  0  0  0  0  0  0
    2.1618   -0.5843   -1.0724 C   0  0  0  0  0  0  0  0  0  0  0  0
    1.5522   -1.3200   -2.0803 C   0  0  0  0  0  0  0  0  0  0  0  0
    0.1732   -1.3633   -2.1659 C   0  0  1  0  0  0  0  0  0  0  0  0
   -0.5157   -2.0427   -3.1066 O   0  0  0  0  0  0  0  0  0  0  0  0
    0.1678   -2.6835   -4.1504 C   0  0  0  0  0  0  0  0  0  0  0  0
    1.9987    0.9927    0.9710 C   0  0  1  0  0  0  0  0  0  0  0  0
    1.1650    1.2401    1.6180 H   0  0  0  0  0  0  0  0  0  0  0  0
    3.0500    0.2956    1.8976 C   0  0  2  0  0  0  0  0  0  0  0  0
    3.0688    0.8790    2.8132 H   0  0  0  0  0  0  0  0  0  0  0  0
    4.4279    0.3212    1.3154 C   0  0  1  0  0  0  0  0  0  0  0  0
    4.9307   -0.9555    1.3341 C   0  0  2  0  0  0  0  0  0  0  0  0
    6.1828   -1.5004    0.9041 C   0  0  0  0  0  0  0  0  0  0  0  0
    6.3855   -2.8282    1.0244 C   0  0  0  0  0  0  0  0  0  0  0  0
    5.3561   -3.6674    1.5707 C   0  0  0  0  0  0  0  0  0  0  0  0
    4.1499   -3.2052    1.9921 C   0  0  0  0  0  0  0  0  0  0  0  0
    3.9228   -1.8131    1.8764 C   0  0  2  0  0  0  0  0  0  0  0  0
    2.8565   -1.1063    2.2077 N   0  0  0  0  0  0  0  0  0  0  0  0
    1.9978   -1.4931    2.5285 H   0  0  0  0  0  0  0  0  0  0  0  0
    4.9656    1.5864    0.7649 C   0  0  0  0  0  0  0  0  0  0  0  0
    3.8664    2.2002   -0.1289 C   0  0  1  0  0  0  0  0  0  0  0  0
    3.7840    1.6046   -1.0384 H   0  0  0  0  0  0  0  0  0  0  0  0
    2.6352    2.2351    0.6269 N   0  0  0  0  0  0  0  0  0  0  0  0
    4.2513    3.6463   -0.5911 C   0  0  0  0  0  0  0  0  0  0  0  0
    5.4582    3.8381   -0.6787 O   0  0  0  0  0  0  0  0  0  0  0  0
    3.2804    4.3577   -0.8255 O   0  0  0  0  0  0  0  0  0  0  0  0
   -6.8032    2.6293    2.0131 H   0  0  0  0  0  0  0  0  0  0  0  0
   -6.9836    1.1682    2.9401 H   0  0  0  0  0  0  0  0  0  0  0  0
   -5.4223    1.9775    2.8875 H   0  0  0  0  0  0  0  0  0  0  0  0
   -3.8147    1.1824    1.5377 H   0  0  0  0  0  0  0  0  0  0  0  0
   -4.5818   -1.1471   -1.9460 H   0  0  0  0  0  0  0  0  0  0  0  0
   -6.9772   -0.8893   -1.5555 H   0  0  0  0  0  0  0  0  0  0  0  0
   -2.4254   -1.7912   -1.3622 H   0  0  0  0  0  0  0  0  0  0  0  0
   -2.4160   -0.3185   -2.3100 H   0  0  0  0  0  0  0  0  0  0  0  0
   -0.5831    0.5811    0.4612 H   0  0  0  0  0  0  0  0  0  0  0  0
    3.2338   -0.5733   -1.0466 H   0  0  0  0  0  0  0  0  0  0  0  0
    2.1656   -1.8408   -2.7893 H   0  0  0  0  0  0  0  0  0  0  0  0
    0.7661   -1.9797   -4.7173 H   0  0  0  0  0  0  0  0  0  0  0  0
    0.8016   -3.4795   -3.7753 H   0  0  0  0  0  0  0  0  0  0  0  0
   -0.5906   -3.1062   -4.7915 H   0  0  0  0  0  0  0  0  0  0  0  0
    6.9350   -0.8502    0.4986 H   0  0  0  0  0  0  0  0  0  0  0  0
    7.3102   -3.2779    0.7177 H   0  0  0  0  0  0  0  0  0  0  0  0
    5.5574   -4.7209    1.6478 H   0  0  0  0  0  0  0  0  0  0  0  0
    3.4010   -3.8603    2.3949 H   0  0  0  0  0  0  0  0  0  0  0  0
    5.1524    2.2816    1.5770 H   0  0  0  0  0  0  0  0  0  0  0  0
    5.8864    1.4467    0.2204 H   0  0  0  0  0  0  0  0  0  0  0  0
    2.0350    2.9351    0.2358 H   0  0  0  0  0  0  0  0  0  0  0  0
  1 41  1  0  0  0  0
  1 42  1  0  0  0  0
  1 43  1  0  0  0  0
  2  1  1  1  0  0  0
  2  3  5  0  0  0  0
  2  7  5  0  0  0  0
  3  4  5  0  0  0  0
  3 44  1  0  0  0  0
  4  5  5  0  0  0  0
  4 11  1  1  0  0  0
  5  6  5  0  0  0  0
  5 45  1  0  0  0  0
  6  7  5  0  0  0  0
  6 46  1  0  0  0  0
  7  8  1  6  0  0  0
  9  8  5  0  0  0  0
 10  8  5  0  0  0  0
 11 12  1  0  0  0  0
 12 47  1  0  0  0  0
 12 48  1  0  0  0  0
 13 12  1  6  0  0  0
 13 14  5  0  0  0  0
 13 18  5  0  0  0  0
 14 49  1  0  0  0  0
 15 14  5  6  0  0  0
 15 16  5  0  0  0  0
 15 21  1  0  0  0  0
 16 17  5  0  0  0  0
 16 50  1  0  0  0  0
 17 18  5  0  0  0  0
 17 51  1  0  0  0  0
 18 19  1  1  0  0  0
 19 20  1  0  0  0  0
 20 52  1  0  0  0  0
 20 53  1  0  0  0  0
 20 54  1  0  0  0  0
 21 22  1  1  0  0  0
 21 23  1  0  0  0  0
 23 24  1  1  0  0  0
 25 23  1  0  0  0  0
 25 26  5  0  0  0  0
 25 34  1  6  0  0  0
 26 27  5  6  0  0  0
 26 31  5  0  0  0  0
 27 28  2  0  0  0  0
 27 55  1  0  0  0  0
 28 29  5  0  0  0  0
 28 56  1  0  0  0  0
 29 30  2  0  0  0  0
 29 57  1  0  0  0  0
 30 58  1  0  0  0  0
 31 30  5  6  0  0  0
 32 23  1  0  0  0  0
 32 31  5  0  0  0  0
 32 33  1  0  0  0  0
 34 35  1  0  0  0  0
 34 59  1  0  0  0  0
 34 60  1  0  0  0  0
 35 36  1  6  0  0  0
 37 21  1  0  0  0  0
 37 35  1  0  0  0  0
 37 61  1  0  0  0  0
 38 35  1  0  0  0  0
 39 38  5  0  0  0  0
 40 38  5  0  0  0  0
M  END
