@<TRIPOS>MOLECULE
final
 41 44 0 0 0
SMALL
GASTEIGER

@<TRIPOS>ATOM
      1 C           6.6452    1.2081    0.3967 C.3     1  UNL1        0.0008
      2 N           5.2404    1.0699    0.1083 N.pl3   1  UNL1       -0.3299
      3 C           4.3854    2.0775   -0.2679 C.2     1  UNL1       -0.0110
      4 C           3.1410    1.6026   -0.4742 C.2     1  UNL1       -0.0604
      5 C           3.1999    0.1898   -0.2140 C.3     1  UNL1        0.0379
      6 C           2.2569   -0.8494   -0.2381 C.3     1  UNL1        0.0654
      7 C           0.8555   -0.5725   -0.6152 C.3     1  UNL1        0.2823
      8 N           0.4925    0.1667   -1.6060 N.3     1  UNL1        0.0635
      9 N          -0.8634    0.1837   -1.6443 N.2     1  UNL1        0.0442
     10 C          -1.2883   -0.5401   -0.6750 C.2     1  UNL1        0.3190
     11 C          -2.7183   -0.8343   -0.3861 C.3     1  UNL1        0.1111
     12 C          -3.2540   -2.0131   -0.8834 C.3     1  UNL1       -0.0148
     13 C          -4.5843   -2.3382   -0.6717 C.3     1  UNL1       -0.0300
     14 C          -5.3948   -1.4798    0.0452 C.3     1  UNL1       -0.0303
     15 C          -4.8728   -0.2998    0.5504 C.3     1  UNL1       -0.0179
     16 C          -3.5431    0.0268    0.3422 C.3     1  UNL1        0.1021
     17 C          -3.0127    1.3247    0.9031 C.3     1  UNL1        0.3977
     18 F          -3.8719    1.8745    1.7488 F       1  UNL1       -0.1700
     19 F          -1.8834    1.1404    1.5763 F       1  UNL1       -0.1700
     20 F          -2.7685    2.2165   -0.0342 F       1  UNL1       -0.1700
     21 N          -0.2448   -1.0614    0.0279 N.pl3   1  UNL1       -0.1965
     22 C          -0.3221   -1.8151    1.2660 C.3     1  UNL1        0.0715
     23 C           2.6800   -2.1279    0.0719 C.3     1  UNL1       -0.0208
     24 C           4.0101   -2.3926    0.4185 C.3     1  UNL1       -0.0285
     25 C           4.9478   -1.3872    0.4642 C.3     1  UNL1       -0.0082
     26 C           4.5272   -0.0983    0.1434 C.3     1  UNL1        0.0704
     27 H           6.8673    0.8972    1.4118 H       1  UNL1        0.0428
     28 H           7.2444    0.6181   -0.2883 H       1  UNL1        0.0428
     29 H           6.9254    2.2464    0.2887 H       1  UNL1        0.0428
     30 H           4.7527    3.0790   -0.3642 H       1  UNL1        0.0777
     31 H           2.2871    2.1589   -0.7947 H       1  UNL1        0.0591
     32 H          -2.6248   -2.6714   -1.4540 H       1  UNL1        0.0318
     33 H          -4.9813   -3.2537   -1.0710 H       1  UNL1        0.0310
     34 H          -6.4286   -1.7203    0.2132 H       1  UNL1        0.0309
     35 H          -5.5024    0.3646    1.1086 H       1  UNL1        0.0315
     36 H          -0.4373   -2.8746    1.0739 H       1  UNL1        0.0689
     37 H           0.5796   -1.6547    1.8349 H       1  UNL1        0.0689
     38 H          -1.1651   -1.4662    1.8419 H       1  UNL1        0.0689
     39 H           1.9851   -2.9467    0.0258 H       1  UNL1        0.0314
     40 H           4.3006   -3.4022    0.6472 H       1  UNL1        0.0310
     41 H           5.9674   -1.5960    0.7334 H       1  UNL1        0.0329
@<TRIPOS>BOND
     1     2     1    1
     2     1    27    1
     3     1    28    1
     4     1    29    1
     5     2     3    1
     6     2    26    1
     7     3     4    2
     8     3    30    1
     9     4     5    5
    10     4    31    1
    11     5     6    5
    12     5    26    5
    13     6     7    1
    14     6    23    5
    15     8     7    5
    16    21     7    1
    17     8     9    5
    18     9    10    2
    19    10    11    1
    20    21    10    1
    21    11    12    5
    22    11    16    5
    23    12    13    5
    24    12    32    1
    25    13    14    5
    26    13    33    1
    27    14    15    5
    28    14    34    1
    29    15    16    5
    30    15    35    1
    31    16    17    1
    32    18    17    1
    33    19    17    1
    34    20    17    1
    35    21    22    1
    36    22    36    1
    37    22    37    1
    38    22    38    1
    39    23    24    5
    40    23    39    1
    41    24    25    5
    42    24    40    1
    43    25    26    5
    44    25    41    1
