final
 OpenBabel08102315123D

 64 66  0  0  1  0  0  0  0  0999 V2000
    7.1805   -3.4965    1.6533 C   0  0  0  0  0  0  0  0  0  0  0  0
    5.8919   -2.9092    1.0807 C   0  0  0  0  0  0  0  0  0  0  0  0
    6.0751   -2.4310   -0.3688 C   0  0  0  0  0  0  0  0  0  0  0  0
    4.7914   -1.8957   -0.9567 C   0  0  2  0  0  0  0  0  0  0  0  0
    4.2809   -0.6143   -0.6968 C   0  0  2  0  0  0  0  0  0  0  0  0
    3.0698   -0.3113   -1.3000 C   0  0  2  0  0  0  0  0  0  0  0  0
    2.4161   -1.1706   -2.0594 N   0  0  0  0  0  0  0  0  0  0  0  0
    2.9707   -2.3550   -2.2426 C   0  0  2  0  0  0  0  0  0  0  0  0
    4.1203   -2.7415   -1.7195 N   0  0  0  0  0  0  0  0  0  0  0  0
    2.2561   -3.3364   -3.1257 C   0  0  0  0  0  0  0  0  0  0  0  0
    2.4768    1.0879   -1.2952 C   0  0  0  0  0  0  0  0  0  0  0  0
    3.1450    1.9710   -1.7589 O   0  0  0  0  0  0  0  0  0  0  0  0
    1.2156    1.2540   -0.8404 N   0  0  0  0  0  0  0  0  0  0  0  0
    0.3968    0.1976   -0.2709 C   0  0  0  0  0  0  0  0  0  0  0  0
   -0.4140    0.7282    0.9115 C   0  0  0  0  0  0  0  0  0  0  0  0
   -1.1805    1.9172    0.5391 N   0  0  0  0  0  0  0  0  0  0  0  0
   -0.2718    2.9786    0.0686 C   0  0  1  0  0  0  0  0  0  0  0  0
    0.4340    3.0935    0.8847 H   0  0  0  0  0  0  0  0  0  0  0  0
    0.5193    2.5019   -1.1465 C   0  0  0  0  0  0  0  0  0  0  0  0
   -0.9278    4.3392   -0.1470 C   0  0  0  0  0  0  0  0  0  0  0  0
   -2.4178    1.7607   -0.0397 C   0  0  0  0  0  0  0  0  0  0  0  0
   -2.7802    2.3455   -1.0201 O   0  0  0  0  0  0  0  0  0  0  0  0
   -3.3880    0.8435    0.6591 C   0  0  1  0  0  0  0  0  0  0  0  0
   -3.4575    0.7339    2.0408 C   0  0  0  0  0  0  0  0  0  0  0  0
   -4.4195   -0.0584    2.6386 C   0  0  0  0  0  0  0  0  0  0  0  0
   -5.3389   -0.7518    1.8682 C   0  0  1  0  0  0  0  0  0  0  0  0
   -5.2732   -0.6269    0.4858 C   0  0  2  0  0  0  0  0  0  0  0  0
   -4.3096    0.1597   -0.1148 C   0  0  0  0  0  0  0  0  0  0  0  0
   -6.2130   -1.2937   -0.4107 N   0  0  0  0  0  0  0  0  0  0  0  0
   -5.7574   -1.7514   -1.4152 O   0  0  0  0  0  0  0  0  0  0  0  0
   -7.3612   -1.3096   -0.1034 O   0  0  0  0  0  0  0  0  0  0  0  0
   -6.4630   -1.7789    2.6827 Cl  0  0  0  0  0  0  0  0  0  0  0  0
    5.0047    0.3747    0.1564 C   0  0  0  0  0  0  0  0  0  0  0  0
    6.1852    0.5106    0.1786 O   0  0  0  0  0  0  0  0  0  0  0  0
    4.1779    1.0695    0.9183 O   0  0  0  0  0  0  0  0  0  0  0  0
    4.7449    2.1381    1.6772 C   0  0  0  0  0  0  0  0  0  0  0  0
    3.6178    2.8192    2.4217 C   0  0  0  0  0  0  0  0  0  0  0  0
    7.0335   -3.8339    2.6743 H   0  0  0  0  0  0  0  0  0  0  0  0
    7.5168   -4.3471    1.0680 H   0  0  0  0  0  0  0  0  0  0  0  0
    7.9768   -2.7586    1.6573 H   0  0  0  0  0  0  0  0  0  0  0  0
    5.1022   -3.6551    1.1134 H   0  0  0  0  0  0  0  0  0  0  0  0
    5.5673   -2.0804    1.7038 H   0  0  0  0  0  0  0  0  0  0  0  0
    6.8474   -1.6777   -0.4108 H   0  0  0  0  0  0  0  0  0  0  0  0
    6.3738   -3.2680   -0.9869 H   0  0  0  0  0  0  0  0  0  0  0  0
    2.7977   -3.4410   -4.0604 H   0  0  0  0  0  0  0  0  0  0  0  0
    2.2284   -4.3112   -2.6547 H   0  0  0  0  0  0  0  0  0  0  0  0
    1.2528   -2.9963   -3.3388 H   0  0  0  0  0  0  0  0  0  0  0  0
   -0.2730   -0.2062   -1.0256 H   0  0  0  0  0  0  0  0  0  0  0  0
    1.0232   -0.6090    0.0755 H   0  0  0  0  0  0  0  0  0  0  0  0
   -1.0701   -0.0528    1.2635 H   0  0  0  0  0  0  0  0  0  0  0  0
    0.2525    0.9960    1.7230 H   0  0  0  0  0  0  0  0  0  0  0  0
    1.2572    3.2346   -1.4278 H   0  0  0  0  0  0  0  0  0  0  0  0
   -0.1531    2.3494   -1.9854 H   0  0  0  0  0  0  0  0  0  0  0  0
   -1.5733    4.5850    0.6892 H   0  0  0  0  0  0  0  0  0  0  0  0
   -0.1479    5.0923   -0.1975 H   0  0  0  0  0  0  0  0  0  0  0  0
   -1.5112    4.3816   -1.0532 H   0  0  0  0  0  0  0  0  0  0  0  0
   -2.7639    1.2749    2.6567 H   0  0  0  0  0  0  0  0  0  0  0  0
   -4.4638   -0.1479    3.7066 H   0  0  0  0  0  0  0  0  0  0  0  0
   -4.2878    0.2460   -1.1825 H   0  0  0  0  0  0  0  0  0  0  0  0
    5.4826    1.7300    2.3534 H   0  0  0  0  0  0  0  0  0  0  0  0
    5.2436    2.8156    0.9994 H   0  0  0  0  0  0  0  0  0  0  0  0
    2.8967    3.2335    1.7273 H   0  0  0  0  0  0  0  0  0  0  0  0
    3.1094    2.1207    3.0775 H   0  0  0  0  0  0  0  0  0  0  0  0
    4.0141    3.6282    3.0263 H   0  0  0  0  0  0  0  0  0  0  0  0
  1  2  1  0  0  0  0
  1 38  1  0  0  0  0
  1 39  1  0  0  0  0
  1 40  1  0  0  0  0
  2  3  1  0  0  0  0
  2 41  1  0  0  0  0
  2 42  1  0  0  0  0
  3 43  1  0  0  0  0
  3 44  1  0  0  0  0
  4  3  1  1  0  0  0
  4  5  5  0  0  0  0
  5  6  5  0  0  0  0
  5 33  1  6  0  0  0
  6 11  1  6  0  0  0
  7  6  5  0  0  0  0
  7  8  5  0  0  0  0
  8 10  1  6  0  0  0
  9  4  5  0  0  0  0
  9  8  5  0  0  0  0
 10 45  1  0  0  0  0
 10 46  1  0  0  0  0
 10 47  1  0  0  0  0
 12 11  2  0  0  0  0
 13 11  1  0  0  0  0
 13 14  1  0  0  0  0
 13 19  1  0  0  0  0
 14 15  1  0  0  0  0
 14 48  1  0  0  0  0
 14 49  1  0  0  0  0
 15 50  1  0  0  0  0
 15 51  1  0  0  0  0
 16 15  1  0  0  0  0
 16 17  1  0  0  0  0
 16 21  1  0  0  0  0
 17 18  1  1  0  0  0
 17 19  1  0  0  0  0
 17 20  1  0  0  0  0
 19 52  1  0  0  0  0
 19 53  1  0  0  0  0
 20 54  1  0  0  0  0
 20 55  1  0  0  0  0
 20 56  1  0  0  0  0
 22 21  2  0  0  0  0
 23 21  1  1  0  0  0
 23 24  5  0  0  0  0
 23 28  5  0  0  0  0
 24 25  5  0  0  0  0
 24 57  1  0  0  0  0
 25 26  5  0  0  0  0
 25 58  1  0  0  0  0
 26 27  5  0  0  0  0
 26 32  1  6  0  0  0
 27 28  5  0  0  0  0
 27 29  1  1  0  0  0
 28 59  1  0  0  0  0
 30 29  5  0  0  0  0
 31 29  5  0  0  0  0
 34 33  2  0  0  0  0
 35 33  1  0  0  0  0
 35 36  1  0  0  0  0
 36 37  1  0  0  0  0
 36 60  1  0  0  0  0
 36 61  1  0  0  0  0
 37 62  1  0  0  0  0
 37 63  1  0  0  0  0
 37 64  1  0  0  0  0
M  END
