final
 OpenBabel08102315123D

 66 71  0  0  1  0  0  0  0  0999 V2000
   -5.2926    4.0562    0.1487 C   0  0  0  0  0  0  0  0  0  0  0  0
   -6.3000    3.0669    0.1548 O   0  0  0  0  0  0  0  0  0  0  0  0
   -5.9926    1.8024   -0.0915 C   0  0  0  0  0  0  0  0  0  0  0  0
   -7.1784    0.9421   -0.0613 C   0  0  0  0  0  0  0  0  0  0  0  0
   -7.1489   -0.3833   -0.2841 C   0  0  0  0  0  0  0  0  0  0  0  0
   -5.8744   -0.9545   -0.5629 C   0  0  1  0  0  0  0  0  0  0  0  0
   -5.5737   -2.2001   -0.8179 N   0  0  0  0  0  0  0  0  0  0  0  0
   -6.2322   -2.9489   -0.8633 H   0  0  0  0  0  0  0  0  0  0  0  0
   -4.1550   -2.3500   -1.0619 C   0  0  0  0  0  0  0  0  0  0  0  0
   -3.6423   -0.9498   -0.8821 C   0  0  0  0  0  0  0  0  0  0  0  0
   -4.6789   -0.1339   -0.5947 C   0  0  0  0  0  0  0  0  0  0  0  0
   -4.7778    1.2890   -0.3471 C   0  0  0  0  0  0  0  0  0  0  0  0
   -2.1820   -0.6343   -1.0289 C   0  0  0  0  0  0  0  0  0  0  0  0
   -1.3899   -0.9387    0.2648 C   0  0  0  0  0  0  0  0  0  0  0  0
    0.0226   -1.1570    0.0099 N   0  0  0  0  0  0  0  0  0  0  0  0
    1.0932   -0.1832    0.3350 C   0  0  2  0  0  0  0  0  0  0  0  0
    0.7999    0.7925   -0.0215 H   0  0  0  0  0  0  0  0  0  0  0  0
    2.1858   -0.7716   -0.5805 C   0  0  1  0  0  0  0  0  0  0  0  0
    1.8882   -0.5298   -1.5958 H   0  0  0  0  0  0  0  0  0  0  0  0
    3.7080   -0.7280   -0.5359 C   0  0  1  0  0  0  0  0  0  0  0  0
    4.0910   -0.8512    0.4693 H   0  0  0  0  0  0  0  0  0  0  0  0
    3.8904   -2.1158   -1.2075 N   0  0  0  0  0  4  0  0  0  0  0  0
    4.7398   -2.3932   -1.6810 H   0  0  0  0  0  0  0  0  0  0  0  0
    2.9629   -2.8954   -1.1914 N   0  0  0  0  0  0  0  0  0  0  0  0
    1.9444   -2.2486   -0.3756 C   0  0  2  0  0  0  0  0  0  0  0  0
    2.1992   -2.5550    0.6384 H   0  0  0  0  0  0  0  0  0  0  0  0
    0.4373   -2.3528   -0.4928 C   0  0  0  0  0  0  0  0  0  0  0  0
   -0.2460   -3.2495   -0.8707 O   0  0  0  0  0  0  0  0  0  0  0  0
    4.4982    0.2984   -1.2990 C   0  0  0  0  0  0  0  0  0  0  0  0
    5.5672    0.9246   -0.6706 C   0  0  0  0  0  0  0  0  0  0  0  0
    6.3314    1.8559   -1.3548 C   0  0  0  0  0  0  0  0  0  0  0  0
    6.0357    2.1572   -2.6738 C   0  0  0  0  0  0  0  0  0  0  0  0
    4.9751    1.5280   -3.3107 C   0  0  0  0  0  0  0  0  0  0  0  0
    4.2083    0.6022   -2.6274 C   0  0  0  0  0  0  0  0  0  0  0  0
    1.4371   -0.0975    1.8122 C   0  0  2  0  0  0  0  0  0  0  0  0
    0.9952   -1.0113    2.7562 C   0  0  0  0  0  0  0  0  0  0  0  0
    1.3238   -0.8748    4.0973 C   0  0  0  0  0  0  0  0  0  0  0  0
    2.0983    0.1966    4.4958 C   0  0  0  0  0  0  0  0  0  0  0  0
    2.5520    1.1284    3.5713 C   0  0  0  0  0  0  0  0  0  0  0  0
    2.2250    0.9815    2.2342 C   0  0  1  0  0  0  0  0  0  0  0  0
    2.6312    1.8127    1.2526 O   0  0  0  0  0  0  0  0  0  0  0  0
    3.2644    3.0343    1.5751 C   0  0  0  0  0  0  0  0  0  0  0  0
   -5.7907    4.9867    0.3634 H   0  0  0  0  0  0  0  0  0  0  0  0
   -4.5543    3.8519    0.9148 H   0  0  0  0  0  0  0  0  0  0  0  0
   -4.8192    4.1107   -0.8242 H   0  0  0  0  0  0  0  0  0  0  0  0
   -8.1074    1.4377    0.1520 H   0  0  0  0  0  0  0  0  0  0  0  0
   -8.0365   -0.9860   -0.2582 H   0  0  0  0  0  0  0  0  0  0  0  0
   -3.7105   -3.0541   -0.3667 H   0  0  0  0  0  0  0  0  0  0  0  0
   -3.9746   -2.7111   -2.0695 H   0  0  0  0  0  0  0  0  0  0  0  0
   -3.8957    1.8957   -0.3785 H   0  0  0  0  0  0  0  0  0  0  0  0
   -1.7838   -1.2460   -1.8286 H   0  0  0  0  0  0  0  0  0  0  0  0
   -2.0501    0.4024   -1.3135 H   0  0  0  0  0  0  0  0  0  0  0  0
   -1.4870   -0.1267    0.9716 H   0  0  0  0  0  0  0  0  0  0  0  0
   -1.7822   -1.8284    0.7391 H   0  0  0  0  0  0  0  0  0  0  0  0
    5.8056    0.6910    0.3522 H   0  0  0  0  0  0  0  0  0  0  0  0
    7.1560    2.3366   -0.8623 H   0  0  0  0  0  0  0  0  0  0  0  0
    6.6309    2.8749   -3.2072 H   0  0  0  0  0  0  0  0  0  0  0  0
    4.7500    1.7565   -4.3358 H   0  0  0  0  0  0  0  0  0  0  0  0
    3.3937    0.1225   -3.1420 H   0  0  0  0  0  0  0  0  0  0  0  0
    0.3734   -1.8353    2.4555 H   0  0  0  0  0  0  0  0  0  0  0  0
    0.9715   -1.5913    4.8151 H   0  0  0  0  0  0  0  0  0  0  0  0
    2.3567    0.3192    5.5314 H   0  0  0  0  0  0  0  0  0  0  0  0
    3.1500    1.9536    3.9044 H   0  0  0  0  0  0  0  0  0  0  0  0
    4.2229    2.8627    2.0483 H   0  0  0  0  0  0  0  0  0  0  0  0
    3.4147    3.5477    0.6391 H   0  0  0  0  0  0  0  0  0  0  0  0
    2.6375    3.6325    2.2238 H   0  0  0  0  0  0  0  0  0  0  0  0
  1 43  1  0  0  0  0
  1 44  1  0  0  0  0
  1 45  1  0  0  0  0
  2  1  1  0  0  0  0
  2  3  1  0  0  0  0
  3  4  5  0  0  0  0
  3 12  2  0  0  0  0
  4  5  2  0  0  0  0
  4 46  1  0  0  0  0
  5 47  1  0  0  0  0
  6  5  5  6  0  0  0
  6 11  5  0  0  0  0
  7  6  5  0  0  0  0
  7  8  1  0  0  0  0
  7  9  1  0  0  0  0
  9 48  1  0  0  0  0
  9 49  1  0  0  0  0
 10  9  1  0  0  0  0
 10 11  2  0  0  0  0
 10 13  1  0  0  0  0
 11 12  1  0  0  0  0
 12 50  1  0  0  0  0
 13 14  1  0  0  0  0
 13 51  1  0  0  0  0
 13 52  1  0  0  0  0
 14 53  1  0  0  0  0
 14 54  1  0  0  0  0
 15 14  1  0  0  0  0
 15 16  1  0  0  0  0
 15 27  1  0  0  0  0
 16 17  1  6  0  0  0
 16 18  1  0  0  0  0
 18 19  1  6  0  0  0
 18 20  1  0  0  0  0
 18 25  1  0  0  0  0
 20 21  1  1  0  0  0
 22 20  1  0  0  0  0
 22 23  1  0  0  0  0
 24 22  2  0  0  0  0
 24 25  1  0  0  0  0
 25 26  1  1  0  0  0
 27 25  1  0  0  0  0
 28 27  2  0  0  0  0
 29 20  1  0  0  0  0
 29 30  5  0  0  0  0
 29 34  5  0  0  0  0
 30 31  5  0  0  0  0
 30 55  1  0  0  0  0
 31 32  5  0  0  0  0
 31 56  1  0  0  0  0
 32 33  5  0  0  0  0
 32 57  1  0  0  0  0
 33 34  5  0  0  0  0
 33 58  1  0  0  0  0
 34 59  1  0  0  0  0
 35 16  1  0  0  0  0
 35 36  5  1  0  0  0
 35 40  5  0  0  0  0
 36 37  5  0  0  0  0
 36 60  1  0  0  0  0
 37 38  5  0  0  0  0
 37 61  1  0  0  0  0
 38 39  5  0  0  0  0
 38 62  1  0  0  0  0
 39 40  5  0  0  0  0
 39 63  1  0  0  0  0
 40 41  1  6  0  0  0
 41 42  1  0  0  0  0
 42 64  1  0  0  0  0
 42 65  1  0  0  0  0
 42 66  1  0  0  0  0
M  END
